<?xml version="1.0" encoding="UTF-8"?>

<!-- generated on 2024-09-03 18:05:20 by Eclipse SUMO netconvert Version 1.20.0
<configuration xmlns:xsi="http://www.w3.org/2001/XMLSchema-instance" xsi:noNamespaceSchemaLocation="http://sumo.dlr.de/xsd/netconvertConfiguration.xsd">

    <input>
        <osm-files value="map.osm"/>
    </input>

    <output>
        <output-file value="map.net.xml"/>
    </output>

    <projection>
        <proj.utm value="true"/>
    </projection>

    <processing>
        <geometry.remove value="true"/>
        <roundabouts.guess value="true"/>
    </processing>

    <tls_building>
        <tls.discard-simple value="true"/>
        <tls.join value="true"/>
        <tls.guess-signals value="true"/>
    </tls_building>

    <ramp_guessing>
        <ramps.guess value="true"/>
    </ramp_guessing>

    <junctions>
        <junctions.join value="true"/>
    </junctions>

</configuration>
-->

<net version="1.20" junctionCornerDetail="5" limitTurnSpeed="5.50" xmlns:xsi="http://www.w3.org/2001/XMLSchema-instance" xsi:noNamespaceSchemaLocation="http://sumo.dlr.de/xsd/net_file.xsd">

    <location netOffset="-776191.22,-1436386.83" convBoundary="0.00,0.00,1928.31,1543.42" origBoundary="77.546073,12.980692,77.563824,12.994610" projParameter="+proj=utm +zone=43 +ellps=WGS84 +datum=WGS84 +units=m +no_defs"/>

    <type id="highway.living_street" priority="2" numLanes="1" speed="2.78" disallow="tram rail_urban rail rail_electric rail_fast ship container cable_car subway aircraft wheelchair scooter drone" oneway="0"/>
    <type id="highway.primary" priority="12" numLanes="2" speed="27.78" disallow="tram rail_urban rail rail_electric rail_fast ship container cable_car subway aircraft wheelchair scooter drone" oneway="0"/>
    <type id="highway.residential" priority="3" numLanes="1" speed="13.89" disallow="tram rail_urban rail rail_electric rail_fast ship container cable_car subway aircraft wheelchair scooter drone" oneway="0"/>
    <type id="highway.secondary" priority="11" numLanes="1" speed="27.78" disallow="tram rail_urban rail rail_electric rail_fast ship container cable_car subway aircraft wheelchair scooter drone" oneway="0"/>
    <type id="highway.service" priority="1" numLanes="1" speed="5.56" allow="pedestrian delivery bicycle" oneway="0"/>
    <type id="highway.steps" priority="1" numLanes="1" speed="1.39" allow="pedestrian" oneway="1" width="2.00"/>
    <type id="highway.tertiary" priority="10" numLanes="1" speed="22.22" disallow="tram rail_urban rail rail_electric rail_fast ship container cable_car subway aircraft wheelchair scooter drone" oneway="0"/>

    <edge id=":10042360174_0" function="internal">
        <lane id=":10042360174_0_0" index="0" disallow="tram rail_urban rail rail_electric rail_fast ship container cable_car subway aircraft wheelchair scooter drone" speed="22.22" length="9.40" shape="526.08,1041.50 516.68,1041.73"/>
    </edge>
    <edge id=":10042360174_1" function="internal">
        <lane id=":10042360174_1_0" index="0" allow="pedestrian delivery bicycle" speed="6.88" length="3.25" shape="526.08,1041.50 523.33,1041.17 522.91,1040.93"/>
    </edge>
    <edge id=":10042360174_7" function="internal">
        <lane id=":10042360174_7_0" index="0" allow="pedestrian delivery bicycle" speed="6.88" length="6.91" shape="522.91,1040.93 521.33,1040.04 520.09,1038.09 519.61,1035.34"/>
    </edge>
    <edge id=":10042360174_2" function="internal">
        <lane id=":10042360174_2_0" index="0" allow="pedestrian delivery bicycle" speed="5.07" length="5.04" shape="522.81,1035.23 523.05,1036.60 523.66,1037.57 524.64,1038.14 526.00,1038.30"/>
    </edge>
    <edge id=":10042360174_3" function="internal">
        <lane id=":10042360174_3_0" index="0" allow="pedestrian delivery bicycle" speed="6.86" length="10.20" shape="522.81,1035.23 522.51,1038.02 521.38,1040.03 519.44,1041.26 516.68,1041.73"/>
    </edge>
    <edge id=":10042360174_4" function="internal">
        <lane id=":10042360174_4_0" index="0" allow="pedestrian delivery bicycle" speed="3.65" length="4.67" shape="522.81,1035.23 522.05,1036.46 521.27,1036.89 520.45,1036.51 519.61,1035.34"/>
    </edge>
    <edge id=":10042360174_5" function="internal">
        <lane id=":10042360174_5_0" index="0" allow="pedestrian delivery bicycle" speed="5.03" length="5.01" shape="516.60,1038.53 517.96,1038.30 518.91,1037.69 519.46,1036.71 519.61,1035.34"/>
    </edge>
    <edge id=":10042360174_6" function="internal">
        <lane id=":10042360174_6_0" index="0" disallow="tram rail_urban rail rail_electric rail_fast ship container cable_car subway aircraft wheelchair scooter drone" speed="22.22" length="9.40" shape="516.60,1038.53 526.00,1038.30"/>
    </edge>
    <edge id=":10042360176_0" function="internal">
        <lane id=":10042360176_0_0" index="0" allow="pedestrian delivery bicycle" speed="4.83" length="4.65" shape="519.36,1027.52 519.15,1026.15 518.62,1025.19 517.77,1024.66 516.61,1024.55"/>
    </edge>
    <edge id=":10042360176_1" function="internal">
        <lane id=":10042360176_1_0" index="0" allow="pedestrian delivery bicycle" speed="5.56" length="10.27" shape="519.36,1027.52 519.67,1024.69 520.78,1022.65 522.71,1021.38 525.45,1020.89"/>
    </edge>
    <edge id=":10042360176_2" function="internal">
        <lane id=":10042360176_2_0" index="0" allow="pedestrian delivery bicycle" speed="3.65" length="4.67" shape="519.36,1027.52 520.12,1026.29 520.91,1025.87 521.72,1026.24 522.56,1027.42"/>
    </edge>
    <edge id=":10042360176_3" function="internal">
        <lane id=":10042360176_3_0" index="0" allow="pedestrian delivery bicycle" speed="5.08" length="5.11" shape="525.56,1024.09 524.21,1024.33 523.26,1024.97 522.71,1026.00 522.56,1027.42"/>
    </edge>
    <edge id=":10042360176_4" function="internal">
        <lane id=":10042360176_4_0" index="0" allow="pedestrian delivery bicycle" speed="5.56" length="8.96" shape="525.56,1024.09 516.61,1024.55"/>
    </edge>
    <edge id=":10042360176_5" function="internal">
        <lane id=":10042360176_5_0" index="0" allow="pedestrian delivery bicycle" speed="3.65" length="4.67" shape="525.56,1024.09 524.33,1023.33 523.90,1022.54 524.28,1021.73 525.45,1020.89"/>
    </edge>
    <edge id=":10042360176_6" function="internal">
        <lane id=":10042360176_6_0" index="0" allow="pedestrian delivery bicycle" speed="5.56" length="8.18" shape="517.97,1018.79 518.68,1019.79 520.16,1020.47 522.42,1020.84 525.45,1020.89"/>
    </edge>
    <edge id=":10042360176_7" function="internal">
        <lane id=":10042360176_7_0" index="0" allow="pedestrian delivery bicycle" speed="5.56" length="9.98" shape="517.97,1018.79 519.22,1021.44 520.70,1023.04 521.96,1024.67 522.56,1027.42"/>
    </edge>
    <edge id=":10042360176_8" function="internal">
        <lane id=":10042360176_8_0" index="0" allow="pedestrian delivery bicycle" speed="5.56" length="8.64" shape="517.97,1018.79 519.79,1020.74 520.17,1022.35 519.11,1023.62 516.61,1024.55"/>
    </edge>
    <edge id=":10042360177_0" function="internal">
        <lane id=":10042360177_0_0" index="0" allow="pedestrian delivery bicycle" speed="5.04" length="5.00" shape="536.63,1026.83 536.40,1025.48 535.78,1024.53 534.80,1023.98 533.43,1023.83"/>
    </edge>
    <edge id=":10042360177_1" function="internal">
        <lane id=":10042360177_1_0" index="0" allow="pedestrian delivery bicycle" speed="5.56" length="9.40" shape="536.63,1026.83 536.33,1017.43"/>
    </edge>
    <edge id=":10042360177_2" function="internal">
        <lane id=":10042360177_2_0" index="0" allow="pedestrian delivery bicycle" speed="3.65" length="4.67" shape="536.63,1026.83 537.40,1025.61 538.18,1025.18 538.99,1025.56 539.83,1026.73"/>
    </edge>
    <edge id=":10042360177_3" function="internal">
        <lane id=":10042360177_3_0" index="0" allow="pedestrian delivery bicycle" speed="5.56" length="9.41" shape="539.53,1017.33 539.83,1026.73"/>
    </edge>
    <edge id=":10042360177_4" function="internal">
        <lane id=":10042360177_4_0" index="0" allow="pedestrian delivery bicycle" speed="5.56" length="10.17" shape="539.53,1017.33 539.22,1020.10 538.11,1022.10 536.18,1023.35 533.43,1023.83"/>
    </edge>
    <edge id=":10042360177_5" function="internal">
        <lane id=":10042360177_5_0" index="0" allow="pedestrian delivery bicycle" speed="3.65" length="4.67" shape="539.53,1017.33 538.77,1018.55 537.98,1018.98 537.17,1018.61 536.33,1017.43"/>
    </edge>
    <edge id=":10042360177_6" function="internal">
        <lane id=":10042360177_6_0" index="0" allow="pedestrian delivery bicycle" speed="5.04" length="5.00" shape="533.33,1020.63 534.68,1020.40 535.63,1019.78 536.18,1018.80 536.33,1017.43"/>
    </edge>
    <edge id=":10042360177_7" function="internal">
        <lane id=":10042360177_7_0" index="0" allow="pedestrian delivery bicycle" speed="5.56" length="10.16" shape="533.33,1020.63 536.10,1020.94 538.11,1022.06 539.35,1023.99 539.83,1026.73"/>
    </edge>
    <edge id=":10042360177_8" function="internal">
        <lane id=":10042360177_8_0" index="0" allow="pedestrian delivery bicycle" speed="3.65" length="4.67" shape="533.33,1020.63 534.56,1021.39 534.98,1022.18 534.61,1022.99 533.43,1023.83"/>
    </edge>
    <edge id=":10042360178_0" function="internal">
        <lane id=":10042360178_0_0" index="0" allow="pedestrian delivery bicycle" speed="3.65" length="4.67" shape="536.02,1008.09 536.78,1006.87 537.56,1006.44 538.38,1006.81 539.21,1007.99"/>
    </edge>
    <edge id=":10042360179_0" function="internal">
        <lane id=":10042360179_0_0" index="0" disallow="tram rail_urban rail rail_electric rail_fast ship container cable_car subway aircraft wheelchair scooter drone" speed="22.22" length="9.40" shape="543.36,1041.07 533.96,1041.30"/>
    </edge>
    <edge id=":10042360179_1" function="internal">
        <lane id=":10042360179_1_0" index="0" allow="pedestrian delivery bicycle" speed="6.88" length="3.25" shape="543.36,1041.07 540.60,1040.75 540.19,1040.51"/>
    </edge>
    <edge id=":10042360179_7" function="internal">
        <lane id=":10042360179_7_0" index="0" allow="pedestrian delivery bicycle" speed="6.88" length="6.91" shape="540.19,1040.51 538.61,1039.61 537.37,1037.67 536.89,1034.92"/>
    </edge>
    <edge id=":10042360179_2" function="internal">
        <lane id=":10042360179_2_0" index="0" allow="pedestrian delivery bicycle" speed="5.07" length="5.03" shape="540.09,1034.81 540.33,1036.18 540.94,1037.15 541.92,1037.71 543.28,1037.87"/>
    </edge>
    <edge id=":10042360179_3" function="internal">
        <lane id=":10042360179_3_0" index="0" allow="pedestrian delivery bicycle" speed="6.86" length="10.20" shape="540.09,1034.81 539.78,1037.59 538.66,1039.60 536.72,1040.84 533.96,1041.30"/>
    </edge>
    <edge id=":10042360179_4" function="internal">
        <lane id=":10042360179_4_0" index="0" allow="pedestrian delivery bicycle" speed="3.65" length="4.67" shape="540.09,1034.81 539.33,1036.04 538.54,1036.46 537.73,1036.09 536.89,1034.92"/>
    </edge>
    <edge id=":10042360179_5" function="internal">
        <lane id=":10042360179_5_0" index="0" allow="pedestrian delivery bicycle" speed="5.03" length="5.01" shape="533.88,1038.10 535.24,1037.88 536.19,1037.27 536.74,1036.28 536.89,1034.92"/>
    </edge>
    <edge id=":10042360179_6" function="internal">
        <lane id=":10042360179_6_0" index="0" disallow="tram rail_urban rail rail_electric rail_fast ship container cable_car subway aircraft wheelchair scooter drone" speed="22.22" length="9.40" shape="533.88,1038.10 543.28,1037.87"/>
    </edge>
    <edge id=":10042360181_0" function="internal">
        <lane id=":10042360181_0_0" index="0" allow="pedestrian delivery bicycle" speed="3.65" length="4.67" shape="503.75,979.63 504.20,978.26 504.87,977.66 505.74,977.83 506.84,978.77"/>
    </edge>
    <edge id=":10042360184_0" function="internal">
        <lane id=":10042360184_0_0" index="0" allow="pedestrian delivery bicycle" speed="5.56" length="9.40" shape="612.78,1108.10 612.37,1098.70"/>
    </edge>
    <edge id=":10042360184_1" function="internal">
        <lane id=":10042360184_1_0" index="0" allow="pedestrian delivery bicycle" speed="5.56" length="10.26" shape="612.78,1108.10 613.06,1105.29 614.17,1103.26 616.11,1102.02 618.89,1101.55"/>
    </edge>
    <edge id=":10042360184_2" function="internal">
        <lane id=":10042360184_2_0" index="0" allow="pedestrian delivery bicycle" speed="3.65" length="4.67" shape="612.78,1108.10 613.53,1106.86 614.31,1106.43 615.13,1106.79 615.98,1107.95"/>
    </edge>
    <edge id=":10042360184_3" function="internal">
        <lane id=":10042360184_3_0" index="0" allow="pedestrian delivery bicycle" speed="5.02" length="5.02" shape="618.97,1104.75 617.61,1104.98 616.66,1105.59 616.11,1106.58 615.98,1107.95"/>
    </edge>
    <edge id=":10042360184_4" function="internal">
        <lane id=":10042360184_4_0" index="0" allow="pedestrian delivery bicycle" speed="5.56" length="10.17" shape="618.97,1104.75 616.18,1104.43 614.15,1103.31 612.88,1101.41 612.37,1098.70"/>
    </edge>
    <edge id=":10042360184_5" function="internal">
        <lane id=":10042360184_5_0" index="0" allow="pedestrian delivery bicycle" speed="3.65" length="4.67" shape="618.97,1104.75 617.75,1103.98 617.33,1103.19 617.71,1102.38 618.89,1101.55"/>
    </edge>
    <edge id=":10042360184_6" function="internal">
        <lane id=":10042360184_6_0" index="0" allow="pedestrian delivery bicycle" speed="5.11" length="5.08" shape="615.56,1098.56 615.82,1099.90 616.46,1100.84 617.49,1101.39 618.89,1101.55"/>
    </edge>
    <edge id=":10042360184_7" function="internal">
        <lane id=":10042360184_7_0" index="0" allow="pedestrian delivery bicycle" speed="5.56" length="9.40" shape="615.56,1098.56 615.98,1107.95"/>
    </edge>
    <edge id=":10042360184_8" function="internal">
        <lane id=":10042360184_8_0" index="0" allow="pedestrian delivery bicycle" speed="3.65" length="4.67" shape="615.56,1098.56 614.82,1099.80 614.03,1100.23 613.22,1099.87 612.37,1098.70"/>
    </edge>
    <edge id=":10042360185_0" function="internal">
        <lane id=":10042360185_0_0" index="0" allow="pedestrian delivery bicycle" speed="3.65" length="4.67" shape="627.63,1101.34 628.85,1102.11 629.27,1102.90 628.89,1103.71 627.71,1104.53"/>
    </edge>
    <edge id=":10042360186_0" function="internal">
        <lane id=":10042360186_0_0" index="0" disallow="tram rail_urban rail rail_electric rail_fast ship container cable_car subway aircraft wheelchair scooter drone" speed="22.22" length="9.40" shape="662.28,1037.63 652.89,1037.96"/>
    </edge>
    <edge id=":10042360186_1" function="internal">
        <lane id=":10042360186_1_0" index="0" allow="pedestrian delivery bicycle" speed="6.85" length="3.28" shape="662.28,1037.63 659.50,1037.33 659.08,1037.10"/>
    </edge>
    <edge id=":10042360186_7" function="internal">
        <lane id=":10042360186_7_0" index="0" allow="pedestrian delivery bicycle" speed="6.85" length="6.94" shape="659.08,1037.10 657.48,1036.21 656.24,1034.26 655.78,1031.49"/>
    </edge>
    <edge id=":10042360186_2" function="internal">
        <lane id=":10042360186_2_0" index="0" allow="pedestrian delivery bicycle" speed="5.03" length="5.01" shape="658.98,1031.42 659.21,1032.78 659.82,1033.73 660.80,1034.28 662.17,1034.43"/>
    </edge>
    <edge id=":10042360186_3" function="internal">
        <lane id=":10042360186_3_0" index="0" allow="pedestrian delivery bicycle" speed="6.89" length="10.17" shape="658.98,1031.42 658.66,1034.20 657.53,1036.21 655.61,1037.47 652.89,1037.96"/>
    </edge>
    <edge id=":10042360186_4" function="internal">
        <lane id=":10042360186_4_0" index="0" allow="pedestrian delivery bicycle" speed="3.65" length="4.67" shape="658.98,1031.42 658.21,1032.64 657.42,1033.06 656.61,1032.68 655.78,1031.49"/>
    </edge>
    <edge id=":10042360186_5" function="internal">
        <lane id=":10042360186_5_0" index="0" allow="pedestrian delivery bicycle" speed="5.08" length="5.05" shape="652.78,1034.76 654.12,1034.51 655.07,1033.89 655.62,1032.88 655.78,1031.49"/>
    </edge>
    <edge id=":10042360186_6" function="internal">
        <lane id=":10042360186_6_0" index="0" disallow="tram rail_urban rail rail_electric rail_fast ship container cable_car subway aircraft wheelchair scooter drone" speed="22.22" length="9.40" shape="652.78,1034.76 662.17,1034.43"/>
    </edge>
    <edge id=":10042360187_0" function="internal">
        <lane id=":10042360187_0_0" index="0" allow="pedestrian delivery bicycle" speed="3.65" length="4.67" shape="655.53,1020.42 656.30,1019.20 657.09,1018.79 657.90,1019.17 658.73,1020.35"/>
    </edge>
    <edge id=":10042360188_0" function="internal">
        <lane id=":10042360188_0_0" index="0" disallow="tram rail_urban rail rail_electric rail_fast ship container cable_car subway aircraft wheelchair scooter drone" speed="22.22" length="9.40" shape="630.11,1038.74 620.72,1039.06"/>
    </edge>
    <edge id=":10042360188_1" function="internal">
        <lane id=":10042360188_1_0" index="0" allow="pedestrian delivery bicycle" speed="6.86" length="3.27" shape="630.11,1038.74 627.33,1038.44 626.92,1038.21"/>
    </edge>
    <edge id=":10042360188_7" function="internal">
        <lane id=":10042360188_7_0" index="0" allow="pedestrian delivery bicycle" speed="6.86" length="6.93" shape="626.92,1038.21 625.32,1037.32 624.08,1035.38 623.61,1032.62"/>
    </edge>
    <edge id=":10042360188_2" function="internal">
        <lane id=":10042360188_2_0" index="0" allow="pedestrian delivery bicycle" speed="5.03" length="5.01" shape="626.81,1032.54 627.04,1033.89 627.65,1034.84 628.64,1035.39 630.00,1035.54"/>
    </edge>
    <edge id=":10042360188_3" function="internal">
        <lane id=":10042360188_3_0" index="0" allow="pedestrian delivery bicycle" speed="6.88" length="10.16" shape="626.81,1032.54 626.49,1035.31 625.37,1037.32 623.45,1038.57 620.72,1039.06"/>
    </edge>
    <edge id=":10042360188_4" function="internal">
        <lane id=":10042360188_4_0" index="0" allow="pedestrian delivery bicycle" speed="3.65" length="4.67" shape="626.81,1032.54 626.04,1033.76 625.25,1034.18 624.44,1033.80 623.61,1032.62"/>
    </edge>
    <edge id=":10042360188_5" function="internal">
        <lane id=":10042360188_5_0" index="0" allow="pedestrian delivery bicycle" speed="5.07" length="5.03" shape="620.61,1035.86 621.96,1035.62 622.90,1035.00 623.46,1034.00 623.61,1032.62"/>
    </edge>
    <edge id=":10042360188_6" function="internal">
        <lane id=":10042360188_6_0" index="0" disallow="tram rail_urban rail rail_electric rail_fast ship container cable_car subway aircraft wheelchair scooter drone" speed="22.22" length="9.40" shape="620.61,1035.86 630.00,1035.54"/>
    </edge>
    <edge id=":10042360194_0" function="internal">
        <lane id=":10042360194_0_0" index="0" allow="pedestrian delivery bicycle" speed="3.65" length="4.67" shape="676.59,974.58 675.84,975.81 675.06,976.25 674.24,975.88 673.39,974.72"/>
    </edge>
    <edge id=":10042360195_0" function="internal">
        <lane id=":10042360195_0_0" index="0" allow="pedestrian delivery bicycle" speed="5.56" length="9.40" shape="829.91,1051.80 829.85,1042.40"/>
    </edge>
    <edge id=":10042360195_1" function="internal">
        <lane id=":10042360195_1_0" index="0" allow="pedestrian delivery bicycle" speed="5.56" length="10.16" shape="829.91,1051.80 830.29,1049.05 831.46,1047.07 833.42,1045.88 836.17,1045.47"/>
    </edge>
    <edge id=":10042360195_2" function="internal">
        <lane id=":10042360195_2_0" index="0" allow="pedestrian delivery bicycle" speed="3.65" length="4.67" shape="829.91,1051.80 830.70,1050.60 831.50,1050.19 832.30,1050.59 833.11,1051.78"/>
    </edge>
    <edge id=":10042360195_3" function="internal">
        <lane id=":10042360195_3_0" index="0" allow="pedestrian delivery bicycle" speed="5.04" length="5.00" shape="836.19,1048.67 834.84,1048.87 833.87,1049.46 833.30,1050.43 833.11,1051.78"/>
    </edge>
    <edge id=":10042360195_4" function="internal">
        <lane id=":10042360195_4_0" index="0" allow="pedestrian delivery bicycle" speed="5.56" length="10.16" shape="836.19,1048.67 833.43,1048.29 831.46,1047.12 830.26,1045.16 829.85,1042.40"/>
    </edge>
    <edge id=":10042360195_5" function="internal">
        <lane id=":10042360195_5_0" index="0" allow="pedestrian delivery bicycle" speed="3.65" length="4.67" shape="836.19,1048.67 834.99,1047.87 834.58,1047.08 834.98,1046.27 836.17,1045.47"/>
    </edge>
    <edge id=":10042360195_6" function="internal">
        <lane id=":10042360195_6_0" index="0" allow="pedestrian delivery bicycle" speed="5.04" length="5.00" shape="833.05,1042.38 833.26,1043.74 833.84,1044.71 834.82,1045.28 836.17,1045.47"/>
    </edge>
    <edge id=":10042360195_7" function="internal">
        <lane id=":10042360195_7_0" index="0" allow="pedestrian delivery bicycle" speed="5.56" length="9.40" shape="833.05,1042.38 833.11,1051.78"/>
    </edge>
    <edge id=":10042360195_8" function="internal">
        <lane id=":10042360195_8_0" index="0" allow="pedestrian delivery bicycle" speed="3.65" length="4.67" shape="833.05,1042.38 832.26,1043.59 831.46,1043.99 830.66,1043.60 829.85,1042.40"/>
    </edge>
    <edge id=":10042360197_0" function="internal">
        <lane id=":10042360197_0_0" index="0" allow="pedestrian delivery bicycle" speed="3.65" length="4.67" shape="874.44,1120.69 873.65,1121.90 872.85,1122.30 872.05,1121.91 871.24,1120.71"/>
    </edge>
    <edge id=":10042360198_0" function="internal">
        <lane id=":10042360198_0_0" index="0" disallow="tram rail_urban rail rail_electric rail_fast ship container cable_car subway aircraft wheelchair scooter drone" speed="13.89" length="14.40" shape="1197.74,1010.28 1197.52,995.88"/>
    </edge>
    <edge id=":10042360198_1" function="internal">
        <lane id=":10042360198_1_0" index="0" disallow="tram rail_urban rail rail_electric rail_fast ship container cable_car subway aircraft wheelchair scooter drone" speed="7.98" length="4.08" shape="1197.74,1010.28 1198.23,1006.40 1198.32,1006.25"/>
    </edge>
    <edge id=":10042360198_2" function="internal">
        <lane id=":10042360198_2_0" index="0" disallow="tram rail_urban rail rail_electric rail_fast ship container cable_car subway aircraft wheelchair scooter drone" speed="3.65" length="1.44" shape="1197.74,1010.28 1198.52,1009.07"/>
    </edge>
    <edge id=":10042360198_9" function="internal">
        <lane id=":10042360198_9_0" index="0" disallow="tram rail_urban rail rail_electric rail_fast ship container cable_car subway aircraft wheelchair scooter drone" speed="7.98" length="10.17" shape="1198.32,1006.25 1199.86,1003.62 1202.60,1001.96 1206.48,1001.41"/>
    </edge>
    <edge id=":10042360198_10" function="internal">
        <lane id=":10042360198_10_0" index="0" disallow="tram rail_urban rail rail_electric rail_fast ship container cable_car subway aircraft wheelchair scooter drone" speed="3.65" length="3.23" shape="1198.52,1009.07 1199.31,1008.65 1200.12,1009.04 1200.94,1010.23"/>
    </edge>
    <edge id=":10042360198_3" function="internal">
        <lane id=":10042360198_3_0" index="0" disallow="tram rail_urban rail rail_electric rail_fast ship container cable_car subway aircraft wheelchair scooter drone" speed="6.48" length="9.03" shape="1206.48,1004.61 1204.02,1004.96 1202.28,1006.01 1201.25,1007.77 1200.94,1010.23"/>
    </edge>
    <edge id=":10042360198_4" function="internal">
        <lane id=":10042360198_4_0" index="0" disallow="tram rail_urban rail rail_electric rail_fast ship container cable_car subway aircraft wheelchair scooter drone" speed="8.05" length="14.21" shape="1206.48,1004.61 1202.61,1004.06 1199.83,1002.42 1198.13,999.70 1197.52,995.88"/>
    </edge>
    <edge id=":10042360198_5" function="internal">
        <lane id=":10042360198_5_0" index="0" disallow="tram rail_urban rail rail_electric rail_fast ship container cable_car subway aircraft wheelchair scooter drone" speed="3.65" length="4.67" shape="1206.48,1004.61 1205.28,1003.81 1204.88,1003.01 1205.28,1002.21 1206.48,1001.41"/>
    </edge>
    <edge id=":10042360198_6" function="internal">
        <lane id=":10042360198_6_0" index="0" disallow="tram rail_urban rail rail_electric rail_fast ship container cable_car subway aircraft wheelchair scooter drone" speed="6.56" length="9.11" shape="1200.72,995.83 1201.11,998.27 1202.20,1000.01 1203.99,1001.06 1206.48,1001.41"/>
    </edge>
    <edge id=":10042360198_7" function="internal">
        <lane id=":10042360198_7_0" index="0" disallow="tram rail_urban rail rail_electric rail_fast ship container cable_car subway aircraft wheelchair scooter drone" speed="13.89" length="14.40" shape="1200.72,995.83 1200.94,1010.23"/>
    </edge>
    <edge id=":10042360198_8" function="internal">
        <lane id=":10042360198_8_0" index="0" disallow="tram rail_urban rail rail_electric rail_fast ship container cable_car subway aircraft wheelchair scooter drone" speed="3.65" length="1.44" shape="1200.72,995.83 1199.94,997.04"/>
    </edge>
    <edge id=":10042360198_11" function="internal">
        <lane id=":10042360198_11_0" index="0" disallow="tram rail_urban rail rail_electric rail_fast ship container cable_car subway aircraft wheelchair scooter drone" speed="3.65" length="3.23" shape="1199.94,997.04 1199.15,997.45 1198.34,997.07 1197.52,995.88"/>
    </edge>
    <edge id=":10042360199_0" function="internal">
        <lane id=":10042360199_0_0" index="0" disallow="tram rail_urban rail rail_electric rail_fast ship container cable_car subway aircraft wheelchair scooter drone" speed="13.89" length="15.29" shape="1234.78,998.59 1227.45,1012.01"/>
    </edge>
    <edge id=":10042360199_1" function="internal">
        <lane id=":10042360199_1_0" index="0" disallow="tram rail_urban rail rail_electric rail_fast ship container cable_car subway aircraft wheelchair scooter drone" speed="10.52" length="3.55" shape="1234.78,998.59 1232.70,1001.22 1232.53,1001.33"/>
    </edge>
    <edge id=":10042360199_2" function="internal">
        <lane id=":10042360199_2_0" index="0" disallow="tram rail_urban rail rail_electric rail_fast ship container cable_car subway aircraft wheelchair scooter drone" speed="3.65" length="1.44" shape="1234.78,998.59 1233.50,999.26"/>
    </edge>
    <edge id=":10042360199_9" function="internal">
        <lane id=":10042360199_9_0" index="0" disallow="tram rail_urban rail rail_electric rail_fast ship container cable_car subway aircraft wheelchair scooter drone" speed="10.52" length="12.06" shape="1232.53,1001.33 1229.73,1003.10 1225.88,1004.23 1221.15,1004.60"/>
    </edge>
    <edge id=":10042360199_10" function="internal">
        <lane id=":10042360199_10_0" index="0" disallow="tram rail_urban rail rail_electric rail_fast ship container cable_car subway aircraft wheelchair scooter drone" speed="3.65" length="3.23" shape="1233.50,999.26 1232.61,999.23 1232.10,998.49 1231.97,997.06"/>
    </edge>
    <edge id=":10042360199_3" function="internal">
        <lane id=":10042360199_3_0" index="0" disallow="tram rail_urban rail rail_electric rail_fast ship container cable_car subway aircraft wheelchair scooter drone" speed="9.35" length="12.20" shape="1221.15,1001.40 1224.99,1001.13 1228.08,1000.32 1230.40,998.96 1231.97,997.06"/>
    </edge>
    <edge id=":10042360199_4" function="internal">
        <lane id=":10042360199_4_0" index="0" disallow="tram rail_urban rail rail_electric rail_fast ship container cable_car subway aircraft wheelchair scooter drone" speed="7.42" length="16.64" shape="1221.15,1001.40 1226.08,1002.06 1228.77,1004.05 1229.23,1007.37 1227.45,1012.01"/>
    </edge>
    <edge id=":10042360199_5" function="internal">
        <lane id=":10042360199_5_0" index="0" disallow="tram rail_urban rail rail_electric rail_fast ship container cable_car subway aircraft wheelchair scooter drone" speed="3.65" length="4.67" shape="1221.15,1001.40 1222.35,1002.20 1222.75,1003.00 1222.35,1003.80 1221.15,1004.60"/>
    </edge>
    <edge id=":10042360199_6" function="internal">
        <lane id=":10042360199_6_0" index="0" disallow="tram rail_urban rail rail_electric rail_fast ship container cable_car subway aircraft wheelchair scooter drone" speed="5.69" length="9.22" shape="1224.64,1010.48 1225.62,1007.91 1225.37,1006.07 1223.88,1004.97 1221.15,1004.60"/>
    </edge>
    <edge id=":10042360199_7" function="internal">
        <lane id=":10042360199_7_0" index="0" disallow="tram rail_urban rail rail_electric rail_fast ship container cable_car subway aircraft wheelchair scooter drone" speed="13.89" length="15.29" shape="1224.64,1010.48 1231.97,997.06"/>
    </edge>
    <edge id=":10042360199_8" function="internal">
        <lane id=":10042360199_8_0" index="0" disallow="tram rail_urban rail rail_electric rail_fast ship container cable_car subway aircraft wheelchair scooter drone" speed="3.65" length="1.44" shape="1224.64,1010.48 1225.92,1009.81"/>
    </edge>
    <edge id=":10042360199_11" function="internal">
        <lane id=":10042360199_11_0" index="0" disallow="tram rail_urban rail rail_electric rail_fast ship container cable_car subway aircraft wheelchair scooter drone" speed="3.65" length="3.23" shape="1225.92,1009.81 1226.81,1009.84 1227.32,1010.58 1227.45,1012.01"/>
    </edge>
    <edge id=":10042360206_0" function="internal">
        <lane id=":10042360206_0_0" index="0" disallow="tram rail_urban rail rail_electric rail_fast ship container cable_car subway aircraft wheelchair scooter drone" speed="13.89" length="13.80" shape="716.62,672.70 713.07,673.06 709.76,673.48 706.46,673.99 702.95,674.61"/>
    </edge>
    <edge id=":10042360206_1" function="internal">
        <lane id=":10042360206_1_0" index="0" disallow="tram rail_urban rail rail_electric rail_fast ship container cable_car subway aircraft wheelchair scooter drone" speed="8.15" length="3.89" shape="716.62,672.70 712.88,672.51 712.75,672.45"/>
    </edge>
    <edge id=":10042360206_2" function="internal">